# generated using pymatgen
data_CoO
_symmetry_space_group_name_H-M   'P 1'
_cell_length_a   3.26190825
_cell_length_b   3.26190815
_cell_length_c   5.58530559
_cell_angle_alpha   90.00000332
_cell_angle_beta   73.02179187
_cell_angle_gamma   60.00000069
_symmetry_Int_Tables_number   1
_chemical_formula_structural   CoO
_chemical_formula_sum   'Co2 O2'
_cell_volume   48.452198339
_cell_formula_units_Z   2
loop_
 _symmetry_equiv_pos_site_id
 _symmetry_equiv_pos_as_xyz
  1  'x, y, z'
loop_
 _atom_site_type_symbol
 _atom_site_label
 _atom_site_symmetry_multiplicity
 _atom_site_fract_x
 _atom_site_fract_y
 _atom_site_fract_z
 _atom_site_occupancy
  Co  Co1  1  0.000808  0.999596  0.998788  1
  Co  Co2  1  0.000795  0.499602  0.498807  1
  O  O3  1  0.249234  0.375383  0.126148  1
  O  O4  1  0.249162  0.875419  0.626257  1
